Circuit: * ADG409 SPICE Macro-model

Fatal Error: No analysis request found.
