Circuit: * C:\Users\Semenov_DM\Desktop\Amplitude detection\Citcuit.asc

WARNING: Less than two connections to node NC_02.  This node is used by R:U1:16.
WARNING: Less than two connections to node NC_01.  This node is used by R:U1:14.
Direct Newton iteration for .op point succeeded.

Date: Wed Mar 14 15:23:00 2018
Total elapsed time: 1.847 seconds.

tnom = 27
temp = 27
method = modified trap
totiter = 248592
traniter = 248588
tranpoints = 101724
accept = 87197
rejected = 14527
matrix size = 48
fillins = 24
solver = Normal
Matrix Compiler1: 2.47 KB object code size  1.3/0.5/[0.3]
Matrix Compiler2: 3.63 KB object code size  0.6/0.8/[0.4]

