Circuit: * C:\Users\Semenov_DM\Desktop\All\Circuit.asc

Direct Newton iteration for .op point succeeded.

Date: Thu Mar 01 11:51:34 2018
Total elapsed time: 0.669 seconds.

tnom = 27
temp = 27
method = modified trap
totiter = 20099
traniter = 20077
tranpoints = 10026
accept = 10024
rejected = 2
matrix size = 178
fillins = 190
solver = Normal
Thread vector: 17.2/9.7[2] 6.1/3.9[2] 3.1/1.9[2] 1.2/1.8[1]  2592/500
Matrix Compiler1: 20.37 KB object code size  5.7/2.5/[1.9]
Matrix Compiler2: 18.23 KB object code size  2.2/2.4/[1.1]

